# generated using pymatgen
data_ErCu2AgHg2IrPtW
_symmetry_space_group_name_H-M   'P 1'
_cell_length_a   97.65303682
_cell_length_b   66.93946839
_cell_length_c   17.25430298
_cell_angle_alpha   80.07369114
_cell_angle_beta   81.87703551
_cell_angle_gamma   74.20174967
_symmetry_Int_Tables_number   1
_chemical_formula_structural   ErCu2AgHg2IrPtW
_chemical_formula_sum   'Er1 Cu2 Ag1 Hg2 Ir1 Pt1 W1'
_cell_volume   106372.41225171
_cell_formula_units_Z   1
loop_
 _symmetry_equiv_pos_site_id
 _symmetry_equiv_pos_as_xyz
  1  'x, y, z'
loop_
 _atom_site_type_symbol
 _atom_site_label
 _atom_site_symmetry_multiplicity
 _atom_site_fract_x
 _atom_site_fract_y
 _atom_site_fract_z
 _atom_site_occupancy
  Cu  Cu0  1  0.01247781  0.05222581  0.06756242  1
  Hg  Hg1  1  0.87151957  0.22345608  0.43283713  1
  Cu  Cu2  1  0.39752430  0.65432459  0.76853311  1
  W  W3  1  0.59272134  0.84634513  0.77507305  1
  Pt  Pt4  1  0.17452832  0.53055024  0.19149549  1
  Ag  Ag5  1  0.85512668  0.79973280  0.91138732  1
  Ir  Ir6  1  0.35198063  0.64301902  0.10928424  1
  Er  Er7  1  0.58516109  0.03313424  0.59776032  1
  Hg  Hg8  1  0.67643917  0.97124237  0.73910993  1
