# generated using pymatgen
data_NaErCoHgOsRh2S
_symmetry_space_group_name_H-M   'P 1'
_cell_length_a   1.00000000
_cell_length_b   19.31665721
_cell_length_c   17.08158684
_cell_angle_alpha   83.38913145
_cell_angle_beta   78.93266813
_cell_angle_gamma   75.15009849
_symmetry_Int_Tables_number   1
_chemical_formula_structural   NaErCoHgOsRh2S
_chemical_formula_sum   'Na1 Er1 Co1 Hg1 Os1 Rh2 S1'
_cell_volume   312.25033295
_cell_formula_units_Z   1
loop_
 _symmetry_equiv_pos_site_id
 _symmetry_equiv_pos_as_xyz
  1  'x, y, z'
loop_
 _atom_site_type_symbol
 _atom_site_label
 _atom_site_symmetry_multiplicity
 _atom_site_fract_x
 _atom_site_fract_y
 _atom_site_fract_z
 _atom_site_occupancy
  Hg  Hg0  1  0.52599519  0.58282614  0.20998451  1
  S  S1  1  0.44157878  0.38184136  0.31973091  1
  Er  Er2  1  0.72078383  0.04733857  0.53837740  1
  Co  Co3  1  0.67127156  0.08200041  0.92372823  1
  Rh  Rh4  1  0.62938482  0.50527680  0.27545953  1
  Rh  Rh5  1  0.17454655  0.98351586  0.57447159  1
  Os  Os6  1  0.69384420  0.80349076  0.88851351  1
  Na  Na7  1  0.17555077  0.81981730  0.04442259  1
