data_image0
_chemical_formula_structural       SrNa2SrSbNaSbNaSbSr2Sb
_chemical_formula_sum              "Sr4 Na4 Sb4"
_cell_length_a       4.844655992028002
_cell_length_b       8.892028966591386
_cell_length_c       9.617475509643555
_cell_angle_alpha    90.86266906050535
_cell_angle_beta     89.99860914589968
_cell_angle_gamma    105.808901410525

_space_group_name_H-M_alt    "P 1"
_space_group_IT_number       1

loop_
  _space_group_symop_operation_xyz
  'x, y, z'

loop_
  _atom_site_type_symbol
  _atom_site_label
  _atom_site_symmetry_multiplicity
  _atom_site_fract_x
  _atom_site_fract_y
  _atom_site_fract_z
  _atom_site_occupancy
  Sr  Sr1       1.0  0.6723327643918661  0.2599524859581829  0.11963547035571993  1.0000
  Na  Na1       1.0  0.7097285383741738  0.3345895407350607  0.7305166130210841  1.0000
  Na  Na2       1.0  0.09646572087701001  0.1070723610547727  0.8535385732020959  1.0000
  Sr  Sr2       1.0  0.14363211341906987  0.2015795263276552  0.4691428245247754  1.0000
  Sb  Sb1       1.0  0.03537607479961036  0.9861122966863206  0.17007592352669682  1.0000
  Na  Na3       1.0  0.858174086103986  0.6314676407534193  0.09401861569253649  1.0000
  Sb  Sb2       1.0  0.7839175454944917  0.4828316276302485  0.4122885465791332  1.0000
  Na  Na4       1.0  0.4719381935744523  0.8588151933381181  0.9718133216073441  1.0000
  Sb  Sb3       1.0  0.2839437427862642  0.48326173419201673  0.9122536783287504  1.0000
  Sr  Sr3       1.0  0.8949624895169151  0.7056643968477485  0.7051653858138062  1.0000
  Sr  Sr4       1.0  0.4242977797953209  0.7646108868348636  0.35512581420894673  1.0000
  Sb  Sb4       1.0  0.5319844494871554  0.9795503021264681  0.6547005177790481  1.0000
