data_image0
_chemical_formula_structural       Tl2In3PbInPb4Sn
_chemical_formula_sum              "Tl2 In4 Pb5 Sn1"
_cell_length_a       5.352019536185338
_cell_length_b       6.754481619729593
_cell_length_c       10.022896766662598
_cell_angle_alpha    89.60064816021686
_cell_angle_beta     89.97063269082837
_cell_angle_gamma    89.98368078364008

_space_group_name_H-M_alt    "P 1"
_space_group_IT_number       1

loop_
  _space_group_symop_operation_xyz
  'x, y, z'

loop_
  _atom_site_type_symbol
  _atom_site_label
  _atom_site_symmetry_multiplicity
  _atom_site_fract_x
  _atom_site_fract_y
  _atom_site_fract_z
  _atom_site_occupancy
  Tl  Tl1       1.0  0.9920675166914419  0.6912516948701142  0.6274674539637258  1.0000
  Tl  Tl2       1.0  0.4914831523460388  0.44609072737852273  0.12617419655018297  1.0000
  In  In1       1.0  0.9918102027401389  0.1948067102487047  0.29512625928790676  1.0000
  In  In2       1.0  0.9918307069401335  0.691867709757375  0.9594719409001413  1.0000
  In  In3       1.0  0.4915078887325602  0.9446620941932603  0.4561626912849331  1.0000
  Pb  Pb1       1.0  0.9917831423077736  0.193352773516446  0.962823092750901  1.0000
  In  In4       1.0  0.4918061788683531  0.441540539889628  0.7930812240260942  1.0000
  Pb  Pb2       1.0  0.4916782378301021  0.4398417775250278  0.462511212064995  1.0000
  Pb  Pb3       1.0  0.9918277269541053  0.19149571684094757  0.6248814463458132  1.0000
  Pb  Pb4       1.0  0.49176350208272424  0.9376307721505277  0.7986245755086963  1.0000
  Pb  Pb5       1.0  0.9917967917497685  0.7040510180836563  0.2890055174798569  1.0000
  Sn  Sn1       1.0  0.4916656020571222  0.9474758500773761  0.1295051125481848  1.0000
