data_image0
_chemical_formula_structural       TbHoTl2HoTlTb2Tl2HoTl2TbTl2
_chemical_formula_sum              "Tb4 Ho3 Tl9"
_cell_length_a       4.804072380282384
_cell_length_b       6.487710490943085
_cell_length_c       15.824984550476074
_cell_angle_alpha    90.7432841726209
_cell_angle_beta     89.99945608935114
_cell_angle_gamma    111.69556363049364

_space_group_name_H-M_alt    "P 1"
_space_group_IT_number       1

loop_
  _space_group_symop_operation_xyz
  'x, y, z'

loop_
  _atom_site_type_symbol
  _atom_site_label
  _atom_site_symmetry_multiplicity
  _atom_site_fract_x
  _atom_site_fract_y
  _atom_site_fract_z
  _atom_site_occupancy
  Tb  Tb1       1.0  0.19682961623085635  0.25660866453373554  0.08498138201512004  1.0000
  Ho  Ho1       1.0  0.4665947859529938  0.7954092030215547  0.21770913919802076  1.0000
  Tl  Tl1       1.0  0.9229543803902426  0.7065059548592887  0.09415782996724258  1.0000
  Tl  Tl2       1.0  0.7539461859628295  0.3711868825774581  0.9385623931839439  1.0000
  Ho  Ho2       1.0  0.7998509994913913  0.46296667992726653  0.7193912861647077  1.0000
  Tl  Tl3       1.0  0.51087462814971  0.8851289150584869  0.9994753597626439  1.0000
  Tb  Tb2       1.0  0.18038629025403852  0.22329665740408874  0.34866419450643893  1.0000
  Tb  Tb3       1.0  0.0642736846682108  0.9891868241911398  0.5838145020235339  1.0000
  Tl  Tl4       1.0  0.7272611845354117  0.3149410479746336  0.5252915621832391  1.0000
  Tl  Tl5       1.0  0.5364274976806624  0.9350485204465236  0.7212499977633882  1.0000
  Ho  Ho3       1.0  0.890304386154105  0.6413112281135834  0.37647986403965117  1.0000
  Tl  Tl6       1.0  0.34177690702883456  0.5484373561979423  0.8439851404308354  1.0000
  Tl  Tl7       1.0  0.5253499747365478  0.9121970532505308  0.41598075629345993  1.0000
  Tb  Tb4       1.0  0.06702114576399279  0.9969332211152397  0.8545286058204543  1.0000
  Tl  Tl8       1.0  0.7349458936617012  0.33079797037341446  0.2209566088901683  1.0000
  Tl  Tl9       1.0  0.36231201858602935  0.5889803760060268  0.5729334356621185  1.0000
