# generated using pymatgen
data_BPt2
_symmetry_space_group_name_H-M   'P 1'
_cell_length_a   2.89197909
_cell_length_b   2.89197909
_cell_length_c   10.34983676
_cell_angle_alpha   90.00000000
_cell_angle_beta   90.00000000
_cell_angle_gamma   117.42581723
_symmetry_Int_Tables_number   1
_chemical_formula_structural   BPt2
_chemical_formula_sum   'B2 Pt4'
_cell_volume   76.83250096
_cell_formula_units_Z   2
loop_
 _symmetry_equiv_pos_site_id
 _symmetry_equiv_pos_as_xyz
  1  'x, y, z'
loop_
 _atom_site_type_symbol
 _atom_site_label
 _atom_site_symmetry_multiplicity
 _atom_site_fract_x
 _atom_site_fract_y
 _atom_site_fract_z
 _atom_site_occupancy
  B  B0  1  0.67148762  0.32851238  0.74999700  1
  B  B1  1  0.32851238  0.67148762  0.24999700  1
  Pt  Pt2  1  0.66964656  0.33035344  0.11609455  1
  Pt  Pt3  1  0.33035344  0.66964656  0.88390845  1
  Pt  Pt4  1  0.33035344  0.66964656  0.61609455  1
  Pt  Pt5  1  0.66964656  0.33035344  0.38390845  1
