# generated using pymatgen
data_CeAlHgSbS
_symmetry_space_group_name_H-M   'P 1'
_cell_length_a   59.22223849
_cell_length_b   41.80135365
_cell_length_c   15.99241734
_cell_angle_alpha   78.18186041
_cell_angle_beta   72.49438578
_cell_angle_gamma   79.53196395
_symmetry_Int_Tables_number   1
_chemical_formula_structural   CeAlHgSbS
_chemical_formula_sum   'Ce1 Al1 Hg1 Sb1 S1'
_cell_volume   36649.41294072
_cell_formula_units_Z   1
loop_
 _symmetry_equiv_pos_site_id
 _symmetry_equiv_pos_as_xyz
  1  'x, y, z'
loop_
 _atom_site_type_symbol
 _atom_site_label
 _atom_site_symmetry_multiplicity
 _atom_site_fract_x
 _atom_site_fract_y
 _atom_site_fract_z
 _atom_site_occupancy
  Ce  Ce0  1  0.87099278  0.29444662  0.34929335  1
  Sb  Sb1  1  0.33903378  0.97195333  0.74801338  1
  Hg  Hg2  1  0.24577793  0.66538906  0.73178756  1
  S  S3  1  0.08268611  0.60298097  0.15654296  1
  Al  Al4  1  0.94870579  0.37742659  0.68727338  1
