# generated using pymatgen
data_CeZnHg3GeHOsPtNF
_symmetry_space_group_name_H-M   'P 1'
_cell_length_a   115.48706512
_cell_length_b   78.83201061
_cell_length_c   18.63858986
_cell_angle_alpha   76.46619781
_cell_angle_beta   79.81913497
_cell_angle_gamma   76.89688137
_symmetry_Int_Tables_number   1
_chemical_formula_structural   CeZnHg3GeHOsPtNF
_chemical_formula_sum   'Ce1 Zn1 Hg3 Ge1 Os1 H1 Pt1 N1 F1'
_cell_volume   159302.94950808
_cell_formula_units_Z   1
loop_
 _symmetry_equiv_pos_site_id
 _symmetry_equiv_pos_as_xyz
  1  'x, y, z'
loop_
 _atom_site_type_symbol
 _atom_site_label
 _atom_site_symmetry_multiplicity
 _atom_site_fract_x
 _atom_site_fract_y
 _atom_site_fract_z
 _atom_site_occupancy
  Hg  Hg0  1  0.84859711  0.62917542  0.54521585  1
  Os  Os1  1  0.64720786  0.78661907  0.44021630  1
  H  H2  1  0.52010322  0.81273603  0.69123363  1
  F  F3  1  0.83769572  0.39300761  0.40360346  1
  Zn  Zn4  1  0.40910846  0.56612164  0.64831531  1
  Ce  Ce5  1  0.06239253  0.35763702  0.97215503  1
  Hg  Hg6  1  0.12702636  0.11691855  0.05157723  1
  Pt  Pt7  1  0.37449002  0.20634080  0.75109339  1
  Hg  Hg8  1  0.81595910  0.89665091  0.70739722  1
  Ge  Ge9  1  0.97373116  0.41396004  0.62386751  1
  N  N10  1  0.32424057  0.12025407  0.79760313  1
