# generated using pymatgen
data_LiAlGaSiHgMoP
_symmetry_space_group_name_H-M   'P 1'
_cell_length_a   78.43362351
_cell_length_b   54.58161735
_cell_length_c   15.60135174
_cell_angle_alpha   86.34834050
_cell_angle_beta   82.10032871
_cell_angle_gamma   75.04942567
_symmetry_Int_Tables_number   1
_chemical_formula_structural   LiAlGaSiHgMoP
_chemical_formula_sum   'Li1 Al1 Ga1 Si1 Hg1 Mo1 P1'
_cell_volume   63888.80846359
_cell_formula_units_Z   1
loop_
 _symmetry_equiv_pos_site_id
 _symmetry_equiv_pos_as_xyz
  1  'x, y, z'
loop_
 _atom_site_type_symbol
 _atom_site_label
 _atom_site_symmetry_multiplicity
 _atom_site_fract_x
 _atom_site_fract_y
 _atom_site_fract_z
 _atom_site_occupancy
  Mo  Mo0  1  0.38666779  0.02422675  0.14766282  1
  Li  Li1  1  0.76746571  0.64932996  0.96718591  1
  Hg  Hg2  1  0.14581446  0.50874174  0.75143898  1
  Si  Si3  1  0.08766131  0.42716739  0.58052993  1
  P  P4  1  0.47272813  0.28871676  0.69028687  1
  Al  Al5  1  0.58082819  0.75893807  0.61756134  1
  Ga  Ga6  1  0.86961037  0.16477841  0.46645829  1
