# generated using pymatgen
data_CaHoMnVAs2IrPtSO
_symmetry_space_group_name_H-M   'P 1'
_cell_length_a   0.99999999
_cell_length_b   21.92979262
_cell_length_c   19.34095001
_cell_angle_alpha   76.24403586
_cell_angle_beta   83.75239175
_cell_angle_gamma   82.37639720
_symmetry_Int_Tables_number   1
_chemical_formula_structural   CaHoMnVAs2IrPtSO
_chemical_formula_sum   'Ca1 Ho1 Mn1 V1 As2 Ir1 Pt1 S1 O1'
_cell_volume   407.01831406
_cell_formula_units_Z   1
loop_
 _symmetry_equiv_pos_site_id
 _symmetry_equiv_pos_as_xyz
  1  'x, y, z'
loop_
 _atom_site_type_symbol
 _atom_site_label
 _atom_site_symmetry_multiplicity
 _atom_site_fract_x
 _atom_site_fract_y
 _atom_site_fract_z
 _atom_site_occupancy
  Ir  Ir0  1  0.21330327  0.52216035  0.28338575  1
  Ca  Ca1  1  0.78409576  0.15514605  0.96792030  1
  As  As2  1  0.90870291  0.78065312  0.09588089  1
  Ho  Ho3  1  0.97764820  0.98842752  0.58790004  1
  As  As4  1  0.03023897  0.52540129  0.32177106  1
  V  V5  1  0.53892571  0.45185775  0.55407393  1
  O  O6  1  0.62640208  0.97547317  0.66422564  1
  Mn  Mn7  1  0.92584854  0.61244500  0.01305080  1
  S  S8  1  0.47498548  0.94150507  0.43229753  1
  Pt  Pt9  1  0.45300061  0.21116225  0.18344219  1
