# generated using pymatgen
data_AgRuF2
_symmetry_space_group_name_H-M   'P 1'
_cell_length_a   11.55731928
_cell_length_b   10.93171021
_cell_length_c   11.81616497
_cell_angle_alpha   73.07167545
_cell_angle_beta   84.13249210
_cell_angle_gamma   79.87586687
_symmetry_Int_Tables_number   1
_chemical_formula_structural   AgRuF2
_chemical_formula_sum   'Ag1 Ru1 F2'
_cell_volume   1403.87824448
_cell_formula_units_Z   1
loop_
 _symmetry_equiv_pos_site_id
 _symmetry_equiv_pos_as_xyz
  1  'x, y, z'
loop_
 _atom_site_type_symbol
 _atom_site_label
 _atom_site_symmetry_multiplicity
 _atom_site_fract_x
 _atom_site_fract_y
 _atom_site_fract_z
 _atom_site_occupancy
  Ru  Ru0  1  0.66931206  0.75168067  0.04918305  1
  F  F1  1  0.80721390  0.85579056  0.78831619  1
  Ag  Ag2  1  0.39948723  0.46709543  0.71101177  1
  F  F3  1  0.39874038  0.17720504  0.09819002  1
