# generated using pymatgen
data_MgZrCoHgPdRhWI
_symmetry_space_group_name_H-M   'P 1'
_cell_length_a   11.25079401
_cell_length_b   10.92001924
_cell_length_c   11.96430874
_cell_angle_alpha   79.11327007
_cell_angle_beta   78.95902677
_cell_angle_gamma   81.85439519
_symmetry_Int_Tables_number   1
_chemical_formula_structural   MgZrCoHgPdRhWI
_chemical_formula_sum   'Mg1 Zr1 Co1 Hg1 Pd1 Rh1 W1 I1'
_cell_volume   1408.23288581
_cell_formula_units_Z   1
loop_
 _symmetry_equiv_pos_site_id
 _symmetry_equiv_pos_as_xyz
  1  'x, y, z'
loop_
 _atom_site_type_symbol
 _atom_site_label
 _atom_site_symmetry_multiplicity
 _atom_site_fract_x
 _atom_site_fract_y
 _atom_site_fract_z
 _atom_site_occupancy
  Hg  Hg0  1  0.32005581  0.78219569  0.62231869  1
  Pd  Pd1  1  0.96575159  0.11955290  0.85259169  1
  Rh  Rh2  1  0.14473978  0.90443641  0.02860627  1
  Co  Co3  1  0.76608014  0.08692633  0.79295862  1
  Mg  Mg4  1  0.05804551  0.46150225  0.47157997  1
  Zr  Zr5  1  0.22444996  0.98640949  0.71573043  1
  W  W6  1  0.69484633  0.53815514  0.47638047  1
  I  I7  1  0.80214053  0.17327298  0.61931193  1
