# generated using pymatgen
data_CaGaCoSiHgRuSBrCl
_symmetry_space_group_name_H-M   'P 1'
_cell_length_a   96.21549550
_cell_length_b   66.56449062
_cell_length_c   18.04129601
_cell_angle_alpha   72.47446204
_cell_angle_beta   73.93035019
_cell_angle_gamma   81.14959330
_symmetry_Int_Tables_number   1
_chemical_formula_structural   CaGaCoSiHgRuSBrCl
_chemical_formula_sum   'Ca1 Ga1 Co1 Si1 Hg1 Ru1 S1 Br1 Cl1'
_cell_volume   105563.66590901
_cell_formula_units_Z   1
loop_
 _symmetry_equiv_pos_site_id
 _symmetry_equiv_pos_as_xyz
  1  'x, y, z'
loop_
 _atom_site_type_symbol
 _atom_site_label
 _atom_site_symmetry_multiplicity
 _atom_site_fract_x
 _atom_site_fract_y
 _atom_site_fract_z
 _atom_site_occupancy
  Co  Co0  1  0.50423729  0.69314021  0.22530648  1
  Br  Br1  1  0.30577654  0.43216306  0.75923729  1
  Si  Si2  1  0.99439013  0.66749263  0.15834922  1
  Ca  Ca3  1  0.25207490  0.33935711  0.41669646  1
  Cl  Cl4  1  0.48734125  0.90856588  0.74642026  1
  Ga  Ga5  1  0.50414908  0.45139790  0.39893869  1
  S  S6  1  0.23881385  0.50594139  0.48859087  1
  Hg  Hg7  1  0.03427511  0.76896453  0.99832654  1
  Ru  Ru8  1  0.06276875  0.58780640  0.53800088  1
