# generated using pymatgen
data_AlSnHgIBrO
_symmetry_space_group_name_H-M   'P 1'
_cell_length_a   11.30505768
_cell_length_b   12.13141541
_cell_length_c   10.40892696
_cell_angle_alpha   73.72184523
_cell_angle_beta   71.23656697
_cell_angle_gamma   79.69583141
_symmetry_Int_Tables_number   1
_chemical_formula_structural   AlSnHgIBrO
_chemical_formula_sum   'Al1 Sn1 Hg1 I1 Br1 O1'
_cell_volume   1291.29816030
_cell_formula_units_Z   1
loop_
 _symmetry_equiv_pos_site_id
 _symmetry_equiv_pos_as_xyz
  1  'x, y, z'
loop_
 _atom_site_type_symbol
 _atom_site_label
 _atom_site_symmetry_multiplicity
 _atom_site_fract_x
 _atom_site_fract_y
 _atom_site_fract_z
 _atom_site_occupancy
  Br  Br0  1  0.97243059  0.18298121  0.68882364  1
  Al  Al1  1  0.33713767  0.03482930  0.35410541  1
  Sn  Sn2  1  0.77965343  0.54620808  0.53040063  1
  I  I3  1  0.11900990  0.11286132  0.95532709  1
  Hg  Hg4  1  0.53288990  0.39392263  0.56539118  1
  O  O5  1  0.89802778  0.09004550  0.88065201  1
