# generated using pymatgen
data_BaBeSiHgIrNF
_symmetry_space_group_name_H-M   'P 1'
_cell_length_a   1.00020981
_cell_length_b   18.50362360
_cell_length_c   15.96789646
_cell_angle_alpha   74.66856233
_cell_angle_beta   72.41946677
_cell_angle_gamma   82.93288276
_symmetry_Int_Tables_number   1
_chemical_formula_structural   BaBeSiHgIrNF
_chemical_formula_sum   'Ba1 Be1 Si1 Hg1 Ir1 N1 F1'
_cell_volume   271.39739282
_cell_formula_units_Z   1
loop_
 _symmetry_equiv_pos_site_id
 _symmetry_equiv_pos_as_xyz
  1  'x, y, z'
loop_
 _atom_site_type_symbol
 _atom_site_label
 _atom_site_symmetry_multiplicity
 _atom_site_fract_x
 _atom_site_fract_y
 _atom_site_fract_z
 _atom_site_occupancy
  Be  Be0  1  0.98798805  0.67969960  0.24066755  1
  Ir  Ir1  1  0.65179092  0.14009728  0.79116911  1
  Si  Si2  1  0.53292710  0.72922748  0.78505749  1
  Hg  Hg3  1  0.98879820  0.40280747  0.69222593  1
  F  F4  1  0.91346222  0.52592057  0.40200368  1
  N  N5  1  0.75652981  0.59848893  0.92471147  1
  Ba  Ba6  1  0.90153539  0.28512159  0.97870278  1
