# generated using pymatgen
data_CeGaCuHgGeSbPdSe
_symmetry_space_group_name_H-M   'P 1'
_cell_length_a   1.00000003
_cell_length_b   19.03167547
_cell_length_c   16.46353722
_cell_angle_alpha   79.52804283
_cell_angle_beta   78.91241607
_cell_angle_gamma   77.74033681
_symmetry_Int_Tables_number   1
_chemical_formula_structural   CeGaCuHgGeSbPdSe
_chemical_formula_sum   'Ce1 Ga1 Cu1 Hg1 Ge1 Sb1 Pd1 Se1'
_cell_volume   297.20631136
_cell_formula_units_Z   1
loop_
 _symmetry_equiv_pos_site_id
 _symmetry_equiv_pos_as_xyz
  1  'x, y, z'
loop_
 _atom_site_type_symbol
 _atom_site_label
 _atom_site_symmetry_multiplicity
 _atom_site_fract_x
 _atom_site_fract_y
 _atom_site_fract_z
 _atom_site_occupancy
  Ce  Ce0  1  0.49423730  0.70330805  0.83061397  1
  Se  Se1  1  0.53861839  0.53677964  0.97401690  1
  Pd  Pd2  1  0.35502818  0.86066365  0.62248665  1
  Hg  Hg3  1  0.97600085  0.76656061  0.86552840  1
  Cu  Cu4  1  0.81015384  0.74194181  0.59878063  1
  Ga  Ga5  1  0.42491189  0.16900700  0.80439585  1
  Sb  Sb6  1  0.93246937  0.38060707  0.71039248  1
  Ge  Ge7  1  0.08773172  0.55931759  0.59680843  1
