# generated using pymatgen
data_ErAlSiHgCN
_symmetry_space_group_name_H-M   'P 1'
_cell_length_a   1.00059297
_cell_length_b   17.25838778
_cell_length_c   15.36816502
_cell_angle_alpha   75.21773266
_cell_angle_beta   70.57374553
_cell_angle_gamma   74.52259714
_symmetry_Int_Tables_number   1
_chemical_formula_structural   ErAlSiHgCN
_chemical_formula_sum   'Er1 Al1 Si1 Hg1 C1 N1'
_cell_volume   237.12591121
_cell_formula_units_Z   1
loop_
 _symmetry_equiv_pos_site_id
 _symmetry_equiv_pos_as_xyz
  1  'x, y, z'
loop_
 _atom_site_type_symbol
 _atom_site_label
 _atom_site_symmetry_multiplicity
 _atom_site_fract_x
 _atom_site_fract_y
 _atom_site_fract_z
 _atom_site_occupancy
  Er  Er0  1  0.67693710  0.23817469  0.82259095  1
  N  N1  1  0.19130094  0.50584960  0.59461737  1
  Al  Al2  1  0.76539898  0.15607195  0.52331150  1
  C  C3  1  0.21389788  0.06963716  0.64709765  1
  Si  Si4  1  0.57700825  0.81897867  0.82812703  1
  Hg  Hg5  1  0.01735527  0.34756112  0.29364109  1
