# generated using pymatgen
data_LiCeTiAlCdHg2Br
_symmetry_space_group_name_H-M   'P 1'
_cell_length_a   1.00000002
_cell_length_b   19.12590590
_cell_length_c   17.82871056
_cell_angle_alpha   77.10685227
_cell_angle_beta   73.63310167
_cell_angle_gamma   75.88004761
_symmetry_Int_Tables_number   1
_chemical_formula_structural   LiCeTiAlCdHg2Br
_chemical_formula_sum   'Li1 Ce1 Ti1 Al1 Cd1 Hg2 Br1'
_cell_volume   312.88936765
_cell_formula_units_Z   1
loop_
 _symmetry_equiv_pos_site_id
 _symmetry_equiv_pos_as_xyz
  1  'x, y, z'
loop_
 _atom_site_type_symbol
 _atom_site_label
 _atom_site_symmetry_multiplicity
 _atom_site_fract_x
 _atom_site_fract_y
 _atom_site_fract_z
 _atom_site_occupancy
  Ti  Ti0  1  0.31832764  0.28260368  0.18444450  1
  Hg  Hg1  1  0.32601580  0.14504926  0.29992127  1
  Ce  Ce2  1  0.58565545  0.18629380  0.23503324  1
  Cd  Cd3  1  0.03306865  0.44283468  0.13271414  1
  Li  Li4  1  0.60311961  0.77060324  0.01469708  1
  Br  Br5  1  0.60481429  0.70469266  0.96212411  1
  Al  Al6  1  0.27668482  0.77876627  0.34737304  1
  Hg  Hg7  1  0.70424104  0.95619786  0.48604879  1
