# generated using pymatgen
data_CoNiSnHg2PPdI
_symmetry_space_group_name_H-M   'P 1'
_cell_length_a   0.99999999
_cell_length_b   18.83891142
_cell_length_c   17.79480171
_cell_angle_alpha   76.35176985
_cell_angle_beta   75.81688539
_cell_angle_gamma   71.23265720
_symmetry_Int_Tables_number   1
_chemical_formula_structural   CoNiSnHg2PPdI
_chemical_formula_sum   'Co1 Ni1 Sn1 Hg2 P1 Pd1 I1'
_cell_volume   303.19395400
_cell_formula_units_Z   1
loop_
 _symmetry_equiv_pos_site_id
 _symmetry_equiv_pos_as_xyz
  1  'x, y, z'
loop_
 _atom_site_type_symbol
 _atom_site_label
 _atom_site_symmetry_multiplicity
 _atom_site_fract_x
 _atom_site_fract_y
 _atom_site_fract_z
 _atom_site_occupancy
  Ni  Ni0  1  0.77021885  0.02157349  0.25611514  1
  Sn  Sn1  1  0.66626638  0.07733952  0.88550276  1
  Co  Co2  1  0.11687594  0.41636133  0.78227371  1
  Pd  Pd3  1  0.25633031  0.00891320  0.73092723  1
  I  I4  1  0.23619944  0.29145962  0.68203431  1
  Hg  Hg5  1  0.03334652  0.97285247  0.96832943  1
  Hg  Hg6  1  0.20054048  0.62021208  0.54741657  1
  P  P7  1  0.27965862  0.83959079  0.93039799  1
