# generated using pymatgen
data_CsSrDyYCrSnHg2MoW
_symmetry_space_group_name_H-M   'P 1'
_cell_length_a   105.63628889
_cell_length_b   73.67182871
_cell_length_c   18.43643379
_cell_angle_alpha   82.61987599
_cell_angle_beta   82.37262844
_cell_angle_gamma   70.53700217
_symmetry_Int_Tables_number   1
_chemical_formula_structural   CsSrDyYCrSnHg2MoW
_chemical_formula_sum   'Cs1 Sr1 Y1 Dy1 Cr1 Sn1 Hg2 Mo1 W1'
_cell_volume   133538.51058979
_cell_formula_units_Z   1
loop_
 _symmetry_equiv_pos_site_id
 _symmetry_equiv_pos_as_xyz
  1  'x, y, z'
loop_
 _atom_site_type_symbol
 _atom_site_label
 _atom_site_symmetry_multiplicity
 _atom_site_fract_x
 _atom_site_fract_y
 _atom_site_fract_z
 _atom_site_occupancy
  Hg  Hg0  1  0.82844573  0.30638218  0.95820743  1
  Y  Y1  1  0.76486707  0.60542953  0.04682828  1
  Sr  Sr2  1  0.89461982  0.21426009  0.84938025  1
  Dy  Dy3  1  0.56029344  0.59064490  0.76644850  1
  Sn  Sn4  1  0.47860837  0.44509587  0.78773820  1
  Cs  Cs5  1  0.77307785  0.16400824  0.08860750  1
  Hg  Hg6  1  0.59429002  0.53884059  0.52833903  1
  Mo  Mo7  1  0.89855349  0.14205098  0.26694825  1
  Cr  Cr8  1  0.96419013  0.66518533  0.11285169  1
  W  W9  1  0.34949988  0.13823748  0.66714382  1
