# generated using pymatgen
data_BaGdAlGaCoRuPtClOF
_symmetry_space_group_name_H-M   'P 1'
_cell_length_a   10.69356428
_cell_length_b   11.06970460
_cell_length_c   10.35121632
_cell_angle_alpha   68.64771757
_cell_angle_beta   71.63850477
_cell_angle_gamma   71.10260745
_symmetry_Int_Tables_number   1
_chemical_formula_structural   BaGdAlGaCoRuPtClOF
_chemical_formula_sum   'Ba1 Gd1 Al1 Ga1 Co1 Ru1 Pt1 Cl1 O1 F1'
_cell_volume   1052.34876131
_cell_formula_units_Z   1
loop_
 _symmetry_equiv_pos_site_id
 _symmetry_equiv_pos_as_xyz
  1  'x, y, z'
loop_
 _atom_site_type_symbol
 _atom_site_label
 _atom_site_symmetry_multiplicity
 _atom_site_fract_x
 _atom_site_fract_y
 _atom_site_fract_z
 _atom_site_occupancy
  Cl  Cl0  1  0.50177145  0.34389651  0.83273262  1
  O  O1  1  0.62604582  0.92194176  0.38216043  1
  Pt  Pt2  1  0.82759601  0.39995360  0.85445333  1
  Gd  Gd3  1  0.77747917  0.28807551  0.82896918  1
  F  F4  1  0.58676046  0.77656907  0.90667248  1
  Al  Al5  1  0.58694726  0.98404753  0.68004292  1
  Ru  Ru6  1  0.12628292  0.16500874  0.87864470  1
  Ba  Ba7  1  0.19011059  0.97114807  0.15556084  1
  Ga  Ga8  1  0.85447842  0.75350189  0.19284163  1
  Co  Co9  1  0.62025720  0.66165459  0.71439344  1
