# generated using pymatgen
data_LiErZr2GaHg2SbAuI
_symmetry_space_group_name_H-M   'P 1'
_cell_length_a   0.99999999
_cell_length_b   22.53275860
_cell_length_c   18.58567619
_cell_angle_alpha   78.31363062
_cell_angle_beta   72.48681878
_cell_angle_gamma   71.23385248
_symmetry_Int_Tables_number   1
_chemical_formula_structural   LiErZr2GaHg2SbAuI
_chemical_formula_sum   'Li1 Er1 Zr2 Ga1 Hg2 Sb1 Au1 I1'
_cell_volume   375.54184762
_cell_formula_units_Z   1
loop_
 _symmetry_equiv_pos_site_id
 _symmetry_equiv_pos_as_xyz
  1  'x, y, z'
loop_
 _atom_site_type_symbol
 _atom_site_label
 _atom_site_symmetry_multiplicity
 _atom_site_fract_x
 _atom_site_fract_y
 _atom_site_fract_z
 _atom_site_occupancy
  I  I0  1  0.27015346  0.40562201  0.94457150  1
  Hg  Hg1  1  0.60570455  0.80697632  0.18025716  1
  Sb  Sb2  1  0.65674669  0.97683990  0.32631889  1
  Hg  Hg3  1  0.87399215  0.97648907  0.54016793  1
  Er  Er4  1  0.48954451  0.48067498  0.34885958  1
  Ga  Ga5  1  0.32331178  0.37907159  0.80905789  1
  Zr  Zr6  1  0.22547692  0.99806106  0.80868596  1
  Au  Au7  1  0.04726955  0.13292444  0.38024345  1
  Li  Li8  1  0.43114892  0.50660634  0.98198819  1
  Zr  Zr9  1  0.69875443  0.98123121  0.57591236  1
