# generated using pymatgen
data_DyBeFeCoHg
_symmetry_space_group_name_H-M   'P 1'
_cell_length_a   58.80851052
_cell_length_b   40.91577616
_cell_length_c   15.18885326
_cell_angle_alpha   85.72044764
_cell_angle_beta   83.19064128
_cell_angle_gamma   88.86620065
_symmetry_Int_Tables_number   1
_chemical_formula_structural   DyBeFeCoHg
_chemical_formula_sum   'Dy1 Be1 Fe1 Co1 Hg1'
_cell_volume   36186.16621070
_cell_formula_units_Z   1
loop_
 _symmetry_equiv_pos_site_id
 _symmetry_equiv_pos_as_xyz
  1  'x, y, z'
loop_
 _atom_site_type_symbol
 _atom_site_label
 _atom_site_symmetry_multiplicity
 _atom_site_fract_x
 _atom_site_fract_y
 _atom_site_fract_z
 _atom_site_occupancy
  Co  Co0  1  0.65728056  0.73217314  0.21761665  1
  Dy  Dy1  1  0.21651201  0.83797723  0.08440656  1
  Be  Be2  1  0.47054195  0.15663040  0.73398685  1
  Hg  Hg3  1  0.65247095  0.99496418  0.42084169  1
  Fe  Fe4  1  0.69277740  0.72258514  0.65997535  1
