# generated using pymatgen
data_ErInCuW
_symmetry_space_group_name_H-M   'P 1'
_cell_length_a   48.57990876
_cell_length_b   36.49186746
_cell_length_c   14.41404629
_cell_angle_alpha   82.63808750
_cell_angle_beta   80.73969941
_cell_angle_gamma   85.51529052
_symmetry_Int_Tables_number   1
_chemical_formula_structural   ErInCuW
_chemical_formula_sum   'Er1 In1 Cu1 W1'
_cell_volume   24968.59251785
_cell_formula_units_Z   1
loop_
 _symmetry_equiv_pos_site_id
 _symmetry_equiv_pos_as_xyz
  1  'x, y, z'
loop_
 _atom_site_type_symbol
 _atom_site_label
 _atom_site_symmetry_multiplicity
 _atom_site_fract_x
 _atom_site_fract_y
 _atom_site_fract_z
 _atom_site_occupancy
  In  In0  1  0.32946771  0.68845165  0.03753136  1
  Er  Er1  1  0.03817993  0.63394105  0.61163545  1
  Cu  Cu2  1  0.98040950  0.55943763  0.66978979  1
  W  W3  1  0.00557988  0.49997509  0.19781528  1
