# generated using pymatgen
data_GdDyTiAg2AsRuRh
_symmetry_space_group_name_H-M   'P 1'
_cell_length_a   1.00000000
_cell_length_b   19.13382331
_cell_length_c   16.72118187
_cell_angle_alpha   76.99571875
_cell_angle_beta   84.13364806
_cell_angle_gamma   77.67501747
_symmetry_Int_Tables_number   1
_chemical_formula_structural   GdDyTiAg2AsRuRh
_chemical_formula_sum   'Gd1 Dy1 Ti1 Ag2 As1 Ru1 Rh1'
_cell_volume   304.05640321
_cell_formula_units_Z   1
loop_
 _symmetry_equiv_pos_site_id
 _symmetry_equiv_pos_as_xyz
  1  'x, y, z'
loop_
 _atom_site_type_symbol
 _atom_site_label
 _atom_site_symmetry_multiplicity
 _atom_site_fract_x
 _atom_site_fract_y
 _atom_site_fract_z
 _atom_site_occupancy
  Ag  Ag0  1  0.96085715  0.88996768  0.54978263  1
  Ag  Ag1  1  0.14408089  0.36555350  0.44750267  1
  As  As2  1  0.86398977  0.17164557  0.30483007  1
  Rh  Rh3  1  0.84400153  0.06320025  0.61984551  1
  Ru  Ru4  1  0.60861230  0.96731162  0.80638045  1
  Ti  Ti5  1  0.97689265  0.99072206  0.31137991  1
  Dy  Dy6  1  0.25988299  0.97857642  0.97420311  1
  Gd  Gd7  1  0.82714403  0.08105551  0.22689508  1
