# generated using pymatgen
data_ErC2Cl
_symmetry_space_group_name_H-M   'P 1'
_cell_length_a   1.00130291
_cell_length_b   15.44139416
_cell_length_c   13.54922771
_cell_angle_alpha   82.03651627
_cell_angle_beta   75.54145497
_cell_angle_gamma   84.41207316
_symmetry_Int_Tables_number   1
_chemical_formula_structural   ErC2Cl
_chemical_formula_sum   'Er1 C2 Cl1'
_cell_volume   200.46943845
_cell_formula_units_Z   1
loop_
 _symmetry_equiv_pos_site_id
 _symmetry_equiv_pos_as_xyz
  1  'x, y, z'
loop_
 _atom_site_type_symbol
 _atom_site_label
 _atom_site_symmetry_multiplicity
 _atom_site_fract_x
 _atom_site_fract_y
 _atom_site_fract_z
 _atom_site_occupancy
  C  C0  1  0.63450676  0.48198438  0.60709739  1
  Cl  Cl1  1  0.16704966  0.29828191  0.95831227  1
  C  C2  1  0.10812670  0.08450857  0.23828194  1
  Er  Er3  1  0.97116727  0.25392181  0.09139945  1
