# generated using pymatgen
data_BaScAlFeSiPtSeO
_symmetry_space_group_name_H-M   'P 1'
_cell_length_a   1.00000003
_cell_length_b   20.32316061
_cell_length_c   17.94826317
_cell_angle_alpha   81.78261750
_cell_angle_beta   84.56644214
_cell_angle_gamma   81.49385273
_symmetry_Int_Tables_number   1
_chemical_formula_structural   BaScAlFeSiPtSeO
_chemical_formula_sum   'Ba1 Sc1 Al1 Fe1 Si1 Pt1 Se1 O1'
_cell_volume   356.03977773
_cell_formula_units_Z   1
loop_
 _symmetry_equiv_pos_site_id
 _symmetry_equiv_pos_as_xyz
  1  'x, y, z'
loop_
 _atom_site_type_symbol
 _atom_site_label
 _atom_site_symmetry_multiplicity
 _atom_site_fract_x
 _atom_site_fract_y
 _atom_site_fract_z
 _atom_site_occupancy
  Pt  Pt0  1  0.87752193  0.70052272  0.21895264  1
  Sc  Sc1  1  0.62180752  0.71798974  0.46661049  1
  Se  Se2  1  0.44662431  0.64025712  0.32736579  1
  Al  Al3  1  0.49405384  0.55221069  0.70019627  1
  Ba  Ba4  1  0.53398854  0.91010451  0.28448391  1
  Fe  Fe5  1  0.85147661  0.09363357  0.00106931  1
  O  O6  1  0.70177424  0.66019320  0.71876407  1
  Si  Si7  1  0.77238297  0.87234187  0.47431570  1
