# generated using pymatgen
data_LiZrHgBSbIrO
_symmetry_space_group_name_H-M   'P 1'
_cell_length_a   10.75319227
_cell_length_b   10.91678967
_cell_length_c   10.95013523
_cell_angle_alpha   84.58645231
_cell_angle_beta   83.71725648
_cell_angle_gamma   75.47242877
_symmetry_Int_Tables_number   1
_chemical_formula_structural   LiZrHgBSbIrO
_chemical_formula_sum   'Li1 Zr1 Hg1 B1 Sb1 Ir1 O1'
_cell_volume   1233.87472762
_cell_formula_units_Z   1
loop_
 _symmetry_equiv_pos_site_id
 _symmetry_equiv_pos_as_xyz
  1  'x, y, z'
loop_
 _atom_site_type_symbol
 _atom_site_label
 _atom_site_symmetry_multiplicity
 _atom_site_fract_x
 _atom_site_fract_y
 _atom_site_fract_z
 _atom_site_occupancy
  B  B0  1  0.37314799  0.35303438  0.50071722  1
  Ir  Ir1  1  0.97551620  0.58952558  0.72795129  1
  Sb  Sb2  1  0.44690940  0.81511474  0.85435992  1
  Li  Li3  1  0.97372395  0.34897751  0.60495710  1
  O  O4  1  0.55546653  0.54588205  0.47191238  1
  Zr  Zr5  1  0.35453281  0.19094230  0.57668674  1
  Hg  Hg6  1  0.04162783  0.73047072  0.26525730  1
