# generated using pymatgen
data_TbCeCuHgPt2BrKr
_symmetry_space_group_name_H-M   'P 1'
_cell_length_a   0.99999999
_cell_length_b   19.06241739
_cell_length_c   16.67389679
_cell_angle_alpha   77.52002057
_cell_angle_beta   84.65552010
_cell_angle_gamma   83.67490320
_symmetry_Int_Tables_number   1
_chemical_formula_structural   TbCeCuHgPt2BrKr
_chemical_formula_sum   'Tb1 Ce1 Cu1 Hg1 Pt2 Br1 Kr1'
_cell_volume   307.65722739
_cell_formula_units_Z   1
loop_
 _symmetry_equiv_pos_site_id
 _symmetry_equiv_pos_as_xyz
  1  'x, y, z'
loop_
 _atom_site_type_symbol
 _atom_site_label
 _atom_site_symmetry_multiplicity
 _atom_site_fract_x
 _atom_site_fract_y
 _atom_site_fract_z
 _atom_site_occupancy
  Hg  Hg0  1  0.40463832  0.91490459  0.71244001  1
  Pt  Pt1  1  0.01732439  0.95842779  0.73840976  1
  Ce  Ce2  1  0.17263170  0.28952366  0.35335043  1
  Kr  Kr3  1  0.75266838  0.23314501  0.95157123  1
  Cu  Cu4  1  0.48264551  0.41966927  0.50755680  1
  Pt  Pt5  1  0.54691750  0.86620605  0.31007338  1
  Tb  Tb6  1  0.77963305  0.16700095  0.36535230  1
  Br  Br7  1  0.01844889  0.83261204  0.30499887  1
