# generated using pymatgen
data_CsCaGdTiInGaCoHgAuSIN
_symmetry_space_group_name_H-M   'P 1'
_cell_length_a   0.99999998
_cell_length_b   23.06451747
_cell_length_c   20.29726219
_cell_angle_alpha   78.77061139
_cell_angle_beta   79.81522789
_cell_angle_gamma   87.59865602
_symmetry_Int_Tables_number   1
_chemical_formula_structural   CsCaGdTiInGaCoHgAuSIN
_chemical_formula_sum
'Cs1 Ca1 Gd1 Ti1 In1 Ga1 Co1 Hg1 Au1 S1 I1 N1'
_cell_volume   451.93502840
_cell_formula_units_Z   1
loop_
 _symmetry_equiv_pos_site_id
 _symmetry_equiv_pos_as_xyz
  1  'x, y, z'
loop_
 _atom_site_type_symbol
 _atom_site_label
 _atom_site_symmetry_multiplicity
 _atom_site_fract_x
 _atom_site_fract_y
 _atom_site_fract_z
 _atom_site_occupancy
  Au  Au0  1  0.57861280  0.64223397  0.41196647  1
  N  N1  1  0.33845910  0.95049429  0.05058767  1
  Ti  Ti2  1  0.95228434  0.56502473  0.97222424  1
  Ca  Ca3  1  0.23413044  0.76962358  0.70265150  1
  Hg  Hg4  1  0.63340920  0.01105658  0.49052891  1
  S  S5  1  0.45658201  0.19203182  0.15895541  1
  I  I6  1  0.44181338  0.34271169  0.17915590  1
  Co  Co7  1  0.53140408  0.31358251  0.26418850  1
  Cs  Cs8  1  0.31998298  0.82318676  0.96593380  1
  Ga  Ga9  1  0.61219931  0.39494687  0.24155661  1
  Gd  Gd10  1  0.51160502  0.75043327  0.71833682  1
  In  In11  1  0.63118047  0.83170128  0.95869231  1
