# generated using pymatgen
data_BaCeZrInCuAgHg2OsN
_symmetry_space_group_name_H-M   'P 1'
_cell_length_a   105.88424873
_cell_length_b   72.04110905
_cell_length_c   18.56518555
_cell_angle_alpha   83.02329801
_cell_angle_beta   89.10207918
_cell_angle_gamma   79.90456190
_symmetry_Int_Tables_number   1
_chemical_formula_structural   BaCeZrInCuAgHg2OsN
_chemical_formula_sum   'Ba1 Ce1 Zr1 In1 Cu1 Ag1 Hg2 Os1 N1'
_cell_volume   138388.33949602
_cell_formula_units_Z   1
loop_
 _symmetry_equiv_pos_site_id
 _symmetry_equiv_pos_as_xyz
  1  'x, y, z'
loop_
 _atom_site_type_symbol
 _atom_site_label
 _atom_site_symmetry_multiplicity
 _atom_site_fract_x
 _atom_site_fract_y
 _atom_site_fract_z
 _atom_site_occupancy
  Zr  Zr0  1  0.43652901  0.24748401  0.44953871  1
  In  In1  1  0.69947922  0.84418470  0.20489655  1
  Ba  Ba2  1  0.26368648  0.48989248  0.86027956  1
  Cu  Cu3  1  0.40857321  0.22477955  0.75137138  1
  Os  Os4  1  0.51495314  0.87999469  0.27053574  1
  Ag  Ag5  1  0.81689334  0.37831357  0.53409314  1
  Ce  Ce6  1  0.94368720  0.60889214  0.21756288  1
  Hg  Hg7  1  0.23425528  0.83394158  0.30353695  1
  Hg  Hg8  1  0.12884681  0.54310948  0.57421732  1
  N  N9  1  0.70255625  0.05242012  0.22757886  1
