# generated using pymatgen
data_BaDyScFeAgTeAsWCl
_symmetry_space_group_name_H-M   'P 1'
_cell_length_a   0.99999999
_cell_length_b   21.10086373
_cell_length_c   17.96927834
_cell_angle_alpha   74.06017622
_cell_angle_beta   76.40372609
_cell_angle_gamma   73.54602759
_symmetry_Int_Tables_number   1
_chemical_formula_structural   BaDyScFeAgTeAsWCl
_chemical_formula_sum   'Ba1 Dy1 Sc1 Fe1 Ag1 Te1 As1 W1 Cl1'
_cell_volume   344.53393499
_cell_formula_units_Z   1
loop_
 _symmetry_equiv_pos_site_id
 _symmetry_equiv_pos_as_xyz
  1  'x, y, z'
loop_
 _atom_site_type_symbol
 _atom_site_label
 _atom_site_symmetry_multiplicity
 _atom_site_fract_x
 _atom_site_fract_y
 _atom_site_fract_z
 _atom_site_occupancy
  Dy  Dy0  1  0.11298125  0.82328701  0.32013384  1
  Fe  Fe1  1  0.53322726  0.25852880  0.01494933  1
  Ag  Ag2  1  0.80197704  0.49828714  0.88693541  1
  Sc  Sc3  1  0.59343934  0.20553081  0.86869699  1
  As  As4  1  0.24847227  0.72506112  0.25880453  1
  Ba  Ba5  1  0.17826016  0.32538900  0.36256424  1
  W  W6  1  0.29828537  0.34421861  0.82831347  1
  Cl  Cl7  1  0.08001078  0.85759735  0.60055351  1
  Te  Te8  1  0.90859520  0.49411651  0.63292092  1
