# generated using pymatgen
data_CsCeErZrInFeCuReAgF
_symmetry_space_group_name_H-M   'P 1'
_cell_length_a   1.00000002
_cell_length_b   21.70122416
_cell_length_c   19.02912521
_cell_angle_alpha   80.39564706
_cell_angle_beta   82.51456477
_cell_angle_gamma   81.98423503
_symmetry_Int_Tables_number   1
_chemical_formula_structural   CsCeErZrInFeCuReAgF
_chemical_formula_sum   'Cs1 Ce1 Er1 Zr1 In1 Fe1 Re1 Cu1 Ag1 F1'
_cell_volume   400.76001737
_cell_formula_units_Z   1
loop_
 _symmetry_equiv_pos_site_id
 _symmetry_equiv_pos_as_xyz
  1  'x, y, z'
loop_
 _atom_site_type_symbol
 _atom_site_label
 _atom_site_symmetry_multiplicity
 _atom_site_fract_x
 _atom_site_fract_y
 _atom_site_fract_z
 _atom_site_occupancy
  Ag  Ag0  1  0.53096944  0.20980446  0.40166751  1
  F  F1  1  0.88100475  0.61899424  0.00605080  1
  Re  Re2  1  0.15759374  0.68304104  0.88796681  1
  Er  Er3  1  0.94649553  0.66642493  0.16105826  1
  Zr  Zr4  1  0.58409047  0.55136836  0.70734167  1
  Cs  Cs5  1  0.05937453  0.75236791  0.63469130  1
  Ce  Ce6  1  0.76273656  0.02918494  0.14331017  1
  Cu  Cu7  1  0.56771016  0.34403312  0.83858281  1
  Fe  Fe8  1  0.54660517  0.63816953  0.73921561  1
  In  In9  1  0.49924207  0.97909546  0.16439731  1
