# generated using pymatgen
data_LiTaBeGaCuBAuSeF
_symmetry_space_group_name_H-M   'P 1'
_cell_length_a   96.08908723
_cell_length_b   65.96540406
_cell_length_c   17.08860588
_cell_angle_alpha   79.90144107
_cell_angle_beta   80.24848654
_cell_angle_gamma   77.51731289
_symmetry_Int_Tables_number   1
_chemical_formula_structural   LiTaBeGaCuBAuSeF
_chemical_formula_sum   'Li1 Ta1 Be1 Ga1 Cu1 B1 Au1 Se1 F1'
_cell_volume   103139.64486102
_cell_formula_units_Z   1
loop_
 _symmetry_equiv_pos_site_id
 _symmetry_equiv_pos_as_xyz
  1  'x, y, z'
loop_
 _atom_site_type_symbol
 _atom_site_label
 _atom_site_symmetry_multiplicity
 _atom_site_fract_x
 _atom_site_fract_y
 _atom_site_fract_z
 _atom_site_occupancy
  B  B0  1  0.07058423  0.60714066  0.86410284  1
  Li  Li1  1  0.84128571  0.08778179  0.88623011  1
  Cu  Cu2  1  0.96075988  0.63678932  0.37556678  1
  F  F3  1  0.30679327  0.81219184  0.22276148  1
  Ga  Ga4  1  0.72523856  0.35591885  0.04678728  1
  Ta  Ta5  1  0.88003433  0.23612684  0.36217782  1
  Au  Au6  1  0.04827100  0.10252379  0.12824863  1
  Se  Se7  1  0.76489961  0.37861016  0.12153774  1
  Be  Be8  1  0.54231668  0.83394271  0.86982203  1
