# generated using pymatgen
data_BaReGeHRu
_symmetry_space_group_name_H-M   'P 1'
_cell_length_a   1.00097513
_cell_length_b   15.97327443
_cell_length_c   15.09529495
_cell_angle_alpha   79.37080247
_cell_angle_beta   86.95882070
_cell_angle_gamma   78.11601686
_symmetry_Int_Tables_number   1
_chemical_formula_structural   BaReGeHRu
_chemical_formula_sum   'Ba1 Re1 Ge1 Ru1 H1'
_cell_volume   232.10227258
_cell_formula_units_Z   1
loop_
 _symmetry_equiv_pos_site_id
 _symmetry_equiv_pos_as_xyz
  1  'x, y, z'
loop_
 _atom_site_type_symbol
 _atom_site_label
 _atom_site_symmetry_multiplicity
 _atom_site_fract_x
 _atom_site_fract_y
 _atom_site_fract_z
 _atom_site_occupancy
  Ge  Ge0  1  0.52052265  0.61310744  0.71376729  1
  Ru  Ru1  1  0.02057559  0.82484567  0.53068459  1
  Re  Re2  1  0.15076353  0.16377264  0.96382904  1
  Ba  Ba3  1  0.14830472  0.05280979  0.64702374  1
  H  H4  1  0.17988962  0.86225343  0.02813698  1
