# generated using pymatgen
data_BaZnFeTeRhAuOF
_symmetry_space_group_name_H-M   'P 1'
_cell_length_a   10.91563373
_cell_length_b   11.98596161
_cell_length_c   10.56974411
_cell_angle_alpha   88.75930043
_cell_angle_beta   78.45728591
_cell_angle_gamma   80.32041724
_symmetry_Int_Tables_number   1
_chemical_formula_structural   BaZnFeTeRhAuOF
_chemical_formula_sum   'Ba1 Zn1 Fe1 Te1 Rh1 Au1 O1 F1'
_cell_volume   1335.52571330
_cell_formula_units_Z   1
loop_
 _symmetry_equiv_pos_site_id
 _symmetry_equiv_pos_as_xyz
  1  'x, y, z'
loop_
 _atom_site_type_symbol
 _atom_site_label
 _atom_site_symmetry_multiplicity
 _atom_site_fract_x
 _atom_site_fract_y
 _atom_site_fract_z
 _atom_site_occupancy
  Ba  Ba0  1  0.03100290  0.95006526  0.74601650  1
  Zn  Zn1  1  0.32492015  0.10476540  0.49012238  1
  Au  Au2  1  0.94032210  0.46088046  0.58300155  1
  Fe  Fe3  1  0.53263438  0.39184618  0.34729725  1
  O  O4  1  0.33669427  0.77207643  0.18945293  1
  Te  Te5  1  0.77432877  0.62905091  0.82263577  1
  Rh  Rh6  1  0.85253006  0.52887070  0.30461782  1
  F  F7  1  0.41072825  0.87223172  0.40145475  1
