# generated using pymatgen
data_MoAu2I
_symmetry_space_group_name_H-M   'P 1'
_cell_length_a   48.88093227
_cell_length_b   35.15674863
_cell_length_c   14.12200642
_cell_angle_alpha   73.52283363
_cell_angle_beta   74.65478020
_cell_angle_gamma   77.11638637
_symmetry_Int_Tables_number   1
_chemical_formula_structural   MoAu2I
_chemical_formula_sum   'Mo1 Au2 I1'
_cell_volume   22153.34036774
_cell_formula_units_Z   1
loop_
 _symmetry_equiv_pos_site_id
 _symmetry_equiv_pos_as_xyz
  1  'x, y, z'
loop_
 _atom_site_type_symbol
 _atom_site_label
 _atom_site_symmetry_multiplicity
 _atom_site_fract_x
 _atom_site_fract_y
 _atom_site_fract_z
 _atom_site_occupancy
  I  I0  1  0.78443456  0.82568705  0.87992489  1
  Au  Au1  1  0.36851501  0.36802995  0.45754054  1
  Au  Au2  1  0.24217780  0.47404659  0.06773480  1
  Mo  Mo3  1  0.32745641  0.55119544  0.88075387  1
