# generated using pymatgen
data_ErMgAl2CoSiNiAgSeS
_symmetry_space_group_name_H-M   'P 1'
_cell_length_a   105.60307495
_cell_length_b   73.31778018
_cell_length_c   19.65925789
_cell_angle_alpha   76.21911479
_cell_angle_beta   79.30797518
_cell_angle_gamma   77.73354206
_symmetry_Int_Tables_number   1
_chemical_formula_structural   ErMgAl2CoSiNiAgSeS
_chemical_formula_sum   'Er1 Mg1 Al2 Co1 Si1 Ni1 Ag1 Se1 S1'
_cell_volume   142989.56107553
_cell_formula_units_Z   1
loop_
 _symmetry_equiv_pos_site_id
 _symmetry_equiv_pos_as_xyz
  1  'x, y, z'
loop_
 _atom_site_type_symbol
 _atom_site_label
 _atom_site_symmetry_multiplicity
 _atom_site_fract_x
 _atom_site_fract_y
 _atom_site_fract_z
 _atom_site_occupancy
  Er  Er0  1  0.19428293  0.71084511  0.70544219  1
  Ni  Ni1  1  0.25277656  0.12443778  0.54119086  1
  Co  Co2  1  0.81369662  0.25706640  0.86419249  1
  Si  Si3  1  0.06831556  0.09895968  0.84600389  1
  Mg  Mg4  1  0.84273612  0.71237242  0.79298413  1
  Ag  Ag5  1  0.74276721  0.80942869  0.44895768  1
  S  S6  1  0.42174274  0.95892757  0.66244304  1
  Al  Al7  1  0.50390947  0.33602038  0.54348493  1
  Al  Al8  1  0.03752583  0.84247142  0.65211034  1
  Se  Se9  1  0.72796923  0.43146598  0.55854332  1
