# generated using pymatgen
data_Cs2AlCo2NiGeAuBrO2
_symmetry_space_group_name_H-M   'P 1'
_cell_length_a   115.34004375
_cell_length_b   79.81219333
_cell_length_c   19.74421692
_cell_angle_alpha   76.42395299
_cell_angle_beta   86.30282924
_cell_angle_gamma   76.71295686
_symmetry_Int_Tables_number   1
_chemical_formula_structural   Cs2AlCo2NiGeAuBrO2
_chemical_formula_sum   'Cs2 Al1 Co2 Ni1 Ge1 Au1 Br1 O2'
_cell_volume   171937.63458301
_cell_formula_units_Z   1
loop_
 _symmetry_equiv_pos_site_id
 _symmetry_equiv_pos_as_xyz
  1  'x, y, z'
loop_
 _atom_site_type_symbol
 _atom_site_label
 _atom_site_symmetry_multiplicity
 _atom_site_fract_x
 _atom_site_fract_y
 _atom_site_fract_z
 _atom_site_occupancy
  Br  Br0  1  0.58027363  0.23367019  0.11457022  1
  Al  Al1  1  0.28023142  0.88170785  0.26864722  1
  Ge  Ge2  1  0.42447287  0.40164280  0.00964903  1
  Au  Au3  1  0.70069432  0.57108766  0.78915167  1
  Ni  Ni4  1  0.10482828  0.57848555  0.97797829  1
  Cs  Cs5  1  0.72148252  0.94694620  0.32622242  1
  Co  Co6  1  0.92007744  0.24020237  0.70611286  1
  O  O7  1  0.06269485  0.21288691  0.31596887  1
  Cs  Cs8  1  0.67775846  0.99385351  0.39627129  1
  O  O9  1  0.56967628  0.60142320  0.57163191  1
  Co  Co10  1  0.36968207  0.52588683  0.93147951  1
