# generated using pymatgen
data_CsSrCaCeYAlHg2HRu
_symmetry_space_group_name_H-M   'P 1'
_cell_length_a   1.00000000
_cell_length_b   20.82763402
_cell_length_c   19.27656174
_cell_angle_alpha   80.81984345
_cell_angle_beta   82.07325303
_cell_angle_gamma   85.52114194
_symmetry_Int_Tables_number   1
_chemical_formula_structural   CsSrCaCeYAlHg2HRu
_chemical_formula_sum   'Cs1 Sr1 Ca1 Ce1 Y1 Al1 Hg2 Ru1 H1'
_cell_volume   391.90936020
_cell_formula_units_Z   1
loop_
 _symmetry_equiv_pos_site_id
 _symmetry_equiv_pos_as_xyz
  1  'x, y, z'
loop_
 _atom_site_type_symbol
 _atom_site_label
 _atom_site_symmetry_multiplicity
 _atom_site_fract_x
 _atom_site_fract_y
 _atom_site_fract_z
 _atom_site_occupancy
  Ca  Ca0  1  0.88154978  0.33783662  0.44322020  1
  Cs  Cs1  1  0.07681705  0.27813548  0.73835325  1
  Al  Al2  1  0.19738728  0.14691012  0.18719347  1
  Hg  Hg3  1  0.11182314  0.65538955  0.37532058  1
  Hg  Hg4  1  0.94826770  0.02095980  0.71029210  1
  Ru  Ru5  1  0.23621756  0.43062371  0.04284735  1
  H  H6  1  0.97836202  0.53467852  0.75109220  1
  Sr  Sr7  1  0.55575490  0.70673651  0.91752833  1
  Ce  Ce8  1  0.75948548  0.15605895  0.81216586  1
  Y  Y9  1  0.37845436  0.34134245  0.89955324  1
