# generated using pymatgen
data_CeMgMnAgSnIr
_symmetry_space_group_name_H-M   'P 1'
_cell_length_a   1.00059296
_cell_length_b   17.53931324
_cell_length_c   16.28946114
_cell_angle_alpha   79.96791879
_cell_angle_beta   83.52135184
_cell_angle_gamma   83.43652401
_symmetry_Int_Tables_number   1
_chemical_formula_structural   CeMgMnAgSnIr
_chemical_formula_sum   'Ce1 Mg1 Mn1 Ag1 Sn1 Ir1'
_cell_volume   278.39495256
_cell_formula_units_Z   1
loop_
 _symmetry_equiv_pos_site_id
 _symmetry_equiv_pos_as_xyz
  1  'x, y, z'
loop_
 _atom_site_type_symbol
 _atom_site_label
 _atom_site_symmetry_multiplicity
 _atom_site_fract_x
 _atom_site_fract_y
 _atom_site_fract_z
 _atom_site_occupancy
  Ir  Ir0  1  0.45118418  0.00910250  0.50527203  1
  Sn  Sn1  1  0.38622525  0.07724796  0.80526155  1
  Mg  Mg2  1  0.52499753  0.45389658  0.92578268  1
  Mn  Mn3  1  0.08591437  0.13522971  0.21138951  1
  Ce  Ce4  1  0.46370918  0.72665948  0.37531748  1
  Ag  Ag5  1  0.22441012  0.48456669  0.17329867  1
